<additional>
    <tazs>
        <taz id = "from_a" edges = "f_a"> </taz>
        <taz id = "to_c" edges = "t_c"> </taz>
        <taz id = "from_b" edges = "f_b"> </taz>
        <taz id = "to_d" edges = "t_d"> </taz>
        <taz id = "from_c" edges = "f_c"> </taz>
        <taz id = "to_e" edges = "t_e"> </taz>
        <taz id = "from_d" edges = "f_d"> </taz>
        <taz id = "to_f" edges = "t_f"> </taz>
        <taz id = "from_e" edges = "f_e"> </taz>
        <taz id = "to_a" edges = "t_a"> </taz>
        <taz id = "to_b" edges = "t_b"> </taz>
    </tazs>
</additional>