<?xml version="1.0" encoding="UTF-8"?>

<!-- generated on 2024-01-03 00:00:20 by Eclipse SUMO polyconvert Version 1.18.0
<configuration xmlns:xsi="http://www.w3.org/2001/XMLSchema-instance" xsi:noNamespaceSchemaLocation="http://sumo.dlr.de/xsd/polyconvertConfiguration.xsd">

    <input>
        <net-file value="osm.net.xml.gz"/>
        <osm-files value="osm_bbox.osm.xml.gz"/>
        <osm.keep-full-type value="true"/>
        <type-file value="${SUMO_HOME}/data/typemap/osmPolyconvert.typ.xml"/>
    </input>

    <output>
        <output-file value="osm.poly.xml.gz"/>
    </output>

    <report>
        <verbose value="true"/>
    </report>

</configuration>
-->

<additional xmlns:xsi="http://www.w3.org/2001/XMLSchema-instance" xsi:noNamespaceSchemaLocation="http://sumo.dlr.de/xsd/additional_file.xsd">
    <location netOffset="-352032.56,-6653554.55" convBoundary="-1652.64,-8118.52,5523.57,6090.21" origBoundary="30.323586,59.919193,30.442000,60.049183" projParameter="+proj=utm +zone=36 +ellps=WGS84 +datum=WGS84 +units=m +no_defs"/>

    <poly id="100529255" type="building.yes" color="255,230,230" fill="1" layer="-1.00" shape="448.418361,530.595772 445.156862,519.978957 442.659000,511.840039 431.774398,515.163033 432.769940,518.412052 436.281866,529.843839 437.534256,533.929880 448.418361,530.595772"/>
    <poly id="1042224356" type="landuse.grass" color="194,194,130" fill="1" layer="-3.00" shape="1499.028234,607.679185 1492.697311,591.966046 1506.816803,586.288023 1510.118601,594.484790 1506.392185,595.981772 1509.426838,603.497944 1499.028234,607.679185"/>
    <poly id="1059937420" type="building.yes" color="255,230,230" fill="1" layer="-1.00" shape="711.390588,770.783195 695.660244,720.573801 670.997339,728.281610 686.728000,778.490903 711.390588,770.783195"/>
    <poly id="1059937420#1" type="tourism.hotel" color="207,245,201" fill="1" layer="-2.00" shape="711.390588,770.783195 695.660244,720.573801 670.997339,728.281610 686.728000,778.490903 711.390588,770.783195"/>
    <poly id="1080643757" type="building.kiosk" color="255,230,230" fill="1" layer="-1.00" shape="1016.086830,758.135884 1017.208322,757.834768 1016.847138,756.477890 1015.725201,756.767875 1016.086830,758.135884"/>
    <poly id="1118498234" type="amenity.parking" color="184,184,179" fill="1" layer="-1.00" shape="821.173971,1105.172653 826.947249,1104.618911 829.227084,1128.586601 823.458974,1129.128986 821.173971,1105.172653"/>
    <poly id="1189152917" type="leisure.playground" color="207,245,201" fill="1" layer="-2.00" shape="307.373791,886.555016 303.806435,887.266476 301.071912,889.672627 299.908989,893.119554 300.632308,896.680458 303.036284,899.404790 306.482964,900.559993 310.050308,899.848536 312.784828,897.442391 313.947762,893.995469 313.230030,890.434338 310.820481,887.710223 307.373791,886.555016"/>
    <poly id="1189152922" type="building.garages" color="255,230,230" fill="1" layer="-1.00" shape="348.763567,943.272026 352.743016,956.758669 349.398698,957.739874 347.373779,958.344940 343.388291,944.847396 348.763567,943.272026"/>
    <poly id="1189152926" type="building.garage" color="255,230,230" fill="1" layer="-1.00" shape="649.699102,985.082677 651.265602,982.366708 655.934738,985.056484 654.368236,987.772451 649.699102,985.082677"/>
    <poly id="1189152927" type="building.garages" color="255,230,230" fill="1" layer="-1.00" shape="624.786637,987.616756 618.439012,967.657978 613.432488,969.240510 619.780138,989.199279 624.786637,987.616756"/>
    <poly id="1189152928" type="building.garages" color="255,230,230" fill="1" layer="-1.00" shape="582.336528,1083.998964 576.738803,1059.617707 570.570064,1061.034946 576.161809,1085.405287 582.336528,1083.998964"/>
    <poly id="1189152929" type="building.service" color="255,230,230" fill="1" layer="-1.00" shape="568.607991,1048.827589 572.986024,1047.448496 574.397315,1051.884974 570.019287,1053.264066 568.607991,1048.827589"/>
    <poly id="1189152930" type="leisure.playground" color="207,245,201" fill="1" layer="-2.00" shape="620.999397,1095.140614 631.791208,1091.632274 636.022625,1104.607403 625.230850,1108.115732 620.999397,1095.140614"/>
    <poly id="1211928823" type="leisure.playground" color="207,245,201" fill="1" layer="-2.00" shape="534.790128,609.552020 526.500651,612.414225 529.392305,620.771563 537.681765,617.909365 534.790128,609.552020"/>
    <poly id="1211928824" type="leisure.playground" color="207,245,201" fill="1" layer="-2.00" shape="466.292192,570.773975 474.903730,568.144025 477.087350,575.269854 468.481402,577.899576 466.292192,570.773975"/>
    <poly id="1211928825" type="building.service" color="255,230,230" fill="1" layer="-1.00" shape="489.261632,590.792357 490.770344,595.704309 486.114366,597.128035 484.605649,592.216085 489.261632,590.792357"/>
    <poly id="1211928826" type="building.garages" color="255,230,230" fill="1" layer="-1.00" shape="611.383612,545.919747 625.315916,568.418346 629.702950,565.712306 615.765090,543.213914 611.383612,545.919747"/>
    <poly id="1211928827" type="building.service" color="255,230,230" fill="1" layer="-1.00" shape="659.401835,551.247697 661.711618,557.766551 667.807292,555.616621 665.491500,549.086856 659.401835,551.247697"/>
    <poly id="1211928829" type="building.garages" color="255,230,230" fill="1" layer="-1.00" shape="632.660978,474.275754 638.262770,472.479975 641.138346,481.417761 635.542142,483.213313 632.660978,474.275754"/>
    <poly id="1214634945" type="landuse.grass" color="194,194,130" fill="1" layer="-3.00" shape="773.269193,685.455903 761.540344,689.023465 755.955798,671.943796 769.151691,667.637585 776.546688,666.706898 777.416661,669.336684 779.637624,676.015224 785.627876,674.025771 787.307898,678.763755 772.674936,683.718147 773.269193,685.455903"/>
    <poly id="1215636472" type="natural.wood" color="140,196,107" fill="1" layer="-4.00" shape="293.360100,791.928850 299.926375,789.971257 301.112630,793.937271 308.606114,791.708436 306.000825,782.983022 291.941488,787.180588 293.360100,791.928850"/>
    <poly id="1215636479" type="natural.wood" color="140,196,107" fill="1" layer="-4.00" shape="224.571136,855.266699 221.316767,845.118015 144.231874,870.416097 148.188950,884.159879 168.156684,877.907636 224.571136,855.266699"/>
    <poly id="1215636480" type="natural.wood" color="140,196,107" fill="1" layer="-4.00" shape="227.678655,843.079288 230.836674,852.774741 255.704679,843.673245 252.816983,835.148705 227.678655,843.079288"/>
    <poly id="1215636482" type="natural.wood" color="140,196,107" fill="1" layer="-4.00" shape="157.110825,824.669449 162.281428,839.713587 164.119823,842.672334 292.168974,800.527597 286.105606,781.862296 157.110825,824.669449"/>
    <poly id="1215636485" type="building.garage" color="255,230,230" fill="1" layer="-1.00" shape="462.002004,1108.333082 460.148968,1102.208570 457.191849,1103.096150 459.050909,1109.231568 462.002004,1108.333082"/>
    <poly id="1215636486" type="building.garage" color="255,230,230" fill="1" layer="-1.00" shape="456.765348,1093.413880 454.844501,1087.548503 451.983916,1088.476818 453.904768,1094.342194 456.765348,1093.413880"/>
    <poly id="1215636491" type="natural.wood" color="140,196,107" fill="1" layer="-4.00" shape="385.956383,792.925988 381.637411,794.392116 384.863294,803.839693 389.181810,802.362438 385.956383,792.925988"/>
    <poly id="1215636492" type="building.yes" color="255,230,230" fill="1" layer="-1.00" shape="397.591907,792.761274 399.200814,797.524250 404.627407,795.690502 405.323942,797.747425 415.412037,794.355843 413.112639,787.546844 397.591907,792.761274"/>
    <poly id="1215636492#1" type="natural.wood" color="140,196,107" fill="1" layer="-4.00" shape="397.591907,792.761274 399.200814,797.524250 404.627407,795.690502 405.323942,797.747425 415.412037,794.355843 413.112639,787.546844 397.591907,792.761274"/>
    <poly id="1215636493" type="natural.wood" color="140,196,107" fill="1" layer="-4.00" shape="348.971308,763.123437 352.720379,774.478764 354.185856,775.657594 356.147965,775.991540 358.643494,775.702103 361.563849,774.726740 364.749599,772.848861 393.024454,763.745735 394.085329,766.813750 586.106221,703.545966 580.400678,686.393316 348.971308,763.123437"/>
    <poly id="1215636494" type="landuse.grass" color="194,194,130" fill="1" layer="-3.00" shape="341.515634,814.549769 351.195554,811.285837 348.082706,807.452690 340.031968,810.127408 341.515634,814.549769"/>
    <poly id="1215636495" type="natural.wood" color="140,196,107" fill="1" layer="-4.00" shape="257.248028,833.555296 260.113416,842.080733 337.461172,815.927318 335.719965,810.790608 304.707026,821.085282 303.693359,818.082290 257.248028,833.555296"/>
    <poly id="1215636509" type="natural.wood" color="140,196,107" fill="1" layer="-4.00" shape="554.871687,754.840854 549.082688,737.279084 418.555127,780.249637 424.057748,797.198369 554.871687,754.840854"/>
    <poly id="1215636510" type="natural.wood" color="140,196,107" fill="1" layer="-4.00" shape="558.273321,753.891003 644.414496,726.367001 631.972236,709.840225 552.255346,736.048518 558.273321,753.891003"/>
    <poly id="1215636511" type="building.service" color="255,230,230" fill="1" layer="-1.00" shape="664.307441,790.323385 669.699372,788.457972 667.982020,783.487406 662.590082,785.352821 664.307441,790.323385"/>
    <poly id="1215636513" type="natural.wood" color="140,196,107" fill="1" layer="-4.00" shape="616.222635,690.758840 664.003054,675.226038 660.681120,665.035132 655.774955,666.624722 654.393964,662.387678 611.519541,676.330947 616.222635,690.758840"/>
    <poly id="1215636514" type="natural.wood" color="140,196,107" fill="1" layer="-4.00" shape="591.611528,701.720507 610.942238,695.418173 605.344507,678.305775 586.013713,684.608138 591.611528,701.720507"/>
    <poly id="1215636515" type="landuse.grass" color="194,194,130" fill="1" layer="-3.00" shape="742.615192,633.188767 747.436292,647.088106 749.422831,649.851682 768.051994,643.868074 774.737930,639.721449 773.213938,635.255956 763.311560,638.561064 759.704948,627.946652 742.615192,633.188767"/>
    <poly id="1217858599" type="amenity.school" color="237,199,199" fill="1" layer="-2.00" shape="186.731386,628.625138 215.867707,724.049743 238.321511,716.271278 243.798279,733.388055 323.139588,709.830272 284.725339,584.151141 279.963074,583.338503 183.087826,616.017065 186.731386,628.625138"/>
    <poly id="1217858601" type="building.school" color="255,230,230" fill="1" layer="-1.00" shape="245.108162,629.496705 256.937148,625.644759 260.495052,636.539426 268.967160,633.780782 271.945910,642.903719 295.399815,635.263952 316.085762,698.640753 305.353900,702.136418 303.629114,696.854128 300.712946,697.795921 286.010469,652.764381 268.487644,658.472023 265.859218,650.427626 226.822379,663.129129 218.000412,636.112594 219.824117,630.342536 223.773494,625.780552 229.225697,623.187419 235.259715,622.990247 240.871577,625.218116 245.108162,629.496705"/>
    <poly id="122622934" type="building.commercial" color="255,230,230" fill="1" layer="-1.00" shape="988.381286,469.589340 1007.294307,518.335125 1018.402769,514.035007 1012.316280,498.346281 1007.856416,500.073677 995.035555,467.016355 988.381286,469.589340"/>
    <poly id="1233932536" type="landuse.industrial" color="209,209,204" fill="0" layer="-3.00" shape="263.481375,1073.871998 276.448543,1069.896394 332.400204,1052.771814 365.752470,1042.383607 374.823162,1050.694123 390.686815,1098.009498 403.183385,1135.280965"/>
    <poly id="1233932727" type="amenity.school" color="237,199,199" fill="0" layer="-2.00" shape="450.236960,1119.328180 403.183385,1135.280965"/>
    <poly id="126521720" type="building.apartments" color="255,230,230" fill="1" layer="-1.00" shape="860.903534,990.841333 840.054139,1026.211683 851.260351,1032.799245 855.391000,1025.778026 864.019023,1011.130096 865.164330,1009.189136 882.019338,1019.096654 904.819984,1032.490692 913.321413,1037.480598 920.260957,1025.709605 860.903534,990.841333"/>
    <poly id="126521757" type="building.yes" color="255,230,230" fill="1" layer="-1.00" shape="135.301482,978.838611 117.997044,926.598446 210.201458,896.156244 214.965481,910.536665 135.623447,936.739319 148.162955,974.588089 135.301482,978.838611"/>
    <poly id="126521831" type="amenity.university" color="237,199,199" fill="1" layer="-2.00" shape="366.182377,248.681679 345.831029,255.628070 325.622936,262.524248 338.062473,298.861415 348.612692,295.261696 341.801722,275.366421 361.403579,268.672974 368.315244,288.854115 378.722334,285.304808 366.182377,248.681679"/>
    <poly id="126521831#1" type="building.school" color="255,230,230" fill="1" layer="-1.00" shape="366.182377,248.681679 345.831029,255.628070 325.622936,262.524248 338.062473,298.861415 348.612692,295.261696 341.801722,275.366421 361.403579,268.672974 368.315244,288.854115 378.722334,285.304808 366.182377,248.681679"/>
    <poly id="126521857" type="building.apartments" color="255,230,230" fill="1" layer="-1.00" shape="1049.525926,923.853309 1028.904716,929.279478 1025.545027,916.570233 1034.031783,914.325587 1030.510304,901.199141 1028.549052,901.723249 1025.602658,890.558331 1023.911331,884.126126 1025.867018,883.602238 1022.617588,871.278799 1020.661895,871.802689 1017.814609,861.024025 1016.221965,854.966941 1018.178111,854.454179 1014.954043,842.207775 1012.992317,842.720760 1010.032477,831.500643 1008.315700,824.991418 1010.277436,824.478431 1006.677384,811.065269 986.691353,816.332542 960.770893,823.163222 944.547654,827.433407 941.105210,828.339935 932.039090,844.342942 919.405459,866.653429 911.925467,879.861831 921.859557,885.485842 916.251262,895.364201 894.906482,882.792715 896.689336,879.756071 902.120451,870.475624 907.552040,861.206316 912.989232,851.936794 931.882236,819.688539 933.476448,816.960451 950.848625,812.376839 953.932276,811.573817 972.840532,806.583455 976.487496,805.624210 1001.236896,799.107894 1011.763271,796.335967 1015.581296,795.325350 1016.837738,800.091452 1025.215441,831.809674 1027.345944,839.874364 1028.207545,843.140001 1032.278020,858.552320 1035.000714,868.867719 1035.243796,869.783363 1035.999777,872.640713 1036.669978,875.167024 1042.470460,897.143802 1043.844931,902.351150 1044.554337,905.020832 1048.282922,919.142406 1048.684629,920.676048 1049.525926,923.853309"/>
    <poly id="131900357" type="building.service" color="255,230,230" fill="1" layer="-1.00" shape="1284.956635,926.641983 1287.129816,925.830867 1288.032927,924.111509 1287.270351,921.644579 1285.334686,920.707075 1283.205474,921.360363 1282.168131,923.073914 1282.447204,925.036100 1283.469259,926.166031 1284.956635,926.641983"/>
    <poly id="131900357#1" type="man_made.mineshaft" color="255,230,230" fill="1" layer="-1.00" shape="1284.956635,926.641983 1287.129816,925.830867 1288.032927,924.111509 1287.270351,921.644579 1285.334686,920.707075 1283.205474,921.360363 1282.168131,923.073914 1282.447204,925.036100 1283.469259,926.166031 1284.956635,926.641983"/>
    <poly id="131900361" type="leisure.pitch" color="207,245,201" fill="1" layer="-2.00" shape="1427.648503,1075.731128 1388.762163,974.075282 1322.308772,999.048468 1360.109880,1101.170504 1427.648503,1075.731128"/>
    <poly id="131900361#1" type="sport.soccer" color="79,230,125" fill="1" layer="-2.00" shape="1427.648503,1075.731128 1388.762163,974.075282 1322.308772,999.048468 1360.109880,1101.170504 1427.648503,1075.731128"/>
    <poly id="132016237" type="building.industrial" color="255,230,230" fill="1" layer="-1.00" shape="894.164643,457.671117 917.263554,444.296925 921.813934,452.120139 915.335410,455.879146 918.656731,461.588547 909.569166,466.856333 910.738029,468.861055 907.632716,470.668334 907.254838,470.014490 902.828275,472.576828 896.676505,461.985768 894.164643,457.671117"/>
    <poly id="132016238" type="building.yes" color="255,230,230" fill="1" layer="-1.00" shape="896.676505,461.985768 902.828275,472.576828 889.940473,480.147908 889.339605,475.723592 885.270277,468.761965 896.676505,461.985768"/>
    <poly id="132016238#1" type="shop.car_repair" color="237,199,255" fill="1" layer="-1.00" shape="896.676505,461.985768 902.828275,472.576828 889.940473,480.147908 889.339605,475.723592 885.270277,468.761965 896.676505,461.985768"/>
    <poly id="132662942" type="building.residential" color="255,230,230" fill="1" layer="-1.00" shape="1480.691906,532.932360 1484.792521,545.913519 1487.538887,545.046320 1488.362439,547.644646 1495.157203,545.512930 1501.945957,543.370317 1501.121972,540.760857 1512.714552,537.111929 1513.538087,539.710261 1520.481640,537.528089 1527.419183,535.335022 1526.595657,532.736687 1538.187841,529.076709 1539.011801,531.686177 1545.905647,529.517177 1552.793483,527.337281 1551.975550,524.738719 1554.843273,523.833308 1550.737315,510.852295 1541.593495,513.734945 1515.568318,521.936986 1490.205196,529.934540 1480.691906,532.932360"/>
    <poly id="132665548" type="amenity.university" color="237,199,199" fill="1" layer="-2.00" shape="1185.199910,848.726238 1199.807079,843.551528 1197.877188,838.132125 1183.275131,843.295489 1185.199910,848.726238"/>
    <poly id="132665548#1" type="building.university" color="255,230,230" fill="1" layer="-1.00" shape="1185.199910,848.726238 1199.807079,843.551528 1197.877188,838.132125 1183.275131,843.295489 1185.199910,848.726238"/>
    <poly id="132757119" type="building.service" color="255,230,230" fill="1" layer="-1.00" shape="1400.843062,551.111293 1414.273656,546.363328 1411.947166,539.811293 1398.516108,544.548134 1400.843062,551.111293"/>
    <poly id="132757120" type="building.service" color="255,230,230" fill="1" layer="-1.00" shape="1318.423806,808.451830 1323.275678,806.620017 1321.441451,801.776476 1316.589573,803.608292 1318.423806,808.451830"/>
    <poly id="132757121" type="building.service" color="255,230,230" fill="1" layer="-1.00" shape="1450.171927,572.473478 1456.242301,570.381620 1452.494573,559.538124 1446.424182,561.629988 1450.171927,572.473478"/>
    <poly id="132757124" type="building.service" color="255,230,230" fill="1" layer="-1.00" shape="1292.243427,798.935607 1297.095300,797.103759 1295.261035,792.260231 1290.414730,794.091860 1292.243427,798.935607"/>
    <poly id="135038894" type="leisure.pitch" color="207,245,201" fill="1" layer="-2.00" shape="376.567461,645.136043 329.756360,660.879061 338.494308,686.795463 385.310232,671.041197 376.567461,645.136043"/>
    <poly id="135038894#1" type="sport.soccer" color="79,230,125" fill="1" layer="-2.00" shape="376.567461,645.136043 329.756360,660.879061 338.494308,686.795463 385.310232,671.041197 376.567461,645.136043"/>
    <poly id="135038896" type="building.service" color="255,230,230" fill="1" layer="-1.00" shape="308.412145,721.334599 315.247270,719.254787 313.132295,712.315818 306.296712,714.384502 308.412145,721.334599"/>
    <poly id="135038898" type="building.yes" color="255,230,230" fill="1" layer="-1.00" shape="255.945981,737.918278 270.681162,733.024589 268.998703,727.963591 254.257928,732.857510 255.945981,737.918278"/>
    <poly id="135038901" type="amenity.parking" color="184,184,179" fill="1" layer="-1.00" shape="373.669324,590.590149 378.388178,588.784708 402.779487,580.695632 406.893780,579.271180 404.627044,572.583509 399.386366,564.420600 393.679582,560.936492 388.064664,557.515607 365.529581,564.270669 373.669324,590.590149"/>
    <poly id="135206567" type="building.yes" color="255,230,230" fill="1" layer="-1.00" shape="226.854329,1038.337123 191.943307,1049.669830 198.086899,1068.521301 230.412789,1058.028053 227.688376,1049.675370 230.278919,1048.835742 226.854329,1038.337123"/>
    <poly id="135206632" type="building.yes" color="255,230,230" fill="1" layer="-1.00" shape="244.761928,987.238578 264.624200,981.570791 263.195789,976.577662 252.480408,979.626920 250.656185,973.256068 241.508808,975.863477 244.761928,987.238578"/>
    <poly id="135206643" type="amenity.parking" color="184,184,179" fill="1" layer="-1.00" shape="204.171019,878.738395 232.538363,868.905603 258.438698,859.929985 280.914070,923.379824 285.268187,935.480111 267.178356,941.355480 249.051118,947.968253 214.965481,910.536665 210.201458,896.156244 204.171019,878.738395"/>
    <poly id="135300267" type="amenity.kindergarten" color="237,199,199" fill="1" layer="-2.00" shape="550.221477,976.204684 498.414246,998.020880 436.048689,1024.285008 447.301774,1059.231704 453.300447,1077.844058 487.179427,1067.502770 550.378963,1092.824366 567.771920,1088.661674 572.793078,1080.467340 564.803977,1046.549280 576.572539,1042.890243 550.221477,976.204684"/>
    <poly id="135300268" type="amenity.kindergarten" color="237,199,199" fill="1" layer="-2.00" shape="499.675886,963.677159 506.822371,984.607193 567.790501,963.863028 591.829535,955.677682 613.170921,937.131752 595.178887,879.532397 557.142959,892.926287 560.353637,902.006693 534.723240,911.036270 531.512504,901.955886 484.292960,918.583021 499.675886,963.677159"/>
    <poly id="135300287" type="building.service" color="255,230,230" fill="1" layer="-1.00" shape="543.536758,904.819648 550.012640,902.698880 547.735630,895.743985 541.259291,897.853625 543.536758,904.819648"/>
    <poly id="135300288" type="building.service" color="255,230,230" fill="1" layer="-1.00" shape="673.764814,787.771571 679.318867,785.910845 676.828258,778.496172 671.274194,780.356902 673.764814,787.771571"/>
    <poly id="135300289" type="building.service" color="255,230,230" fill="1" layer="-1.00" shape="473.754606,988.170865 471.634433,981.789466 460.860924,985.342127 462.975986,991.734873 473.754606,988.170865"/>
    <poly id="135300292" type="building.yes" color="255,230,230" fill="1" layer="-1.00" shape="289.786617,1130.512630 297.816092,1127.883208 287.863419,1097.556105 279.833883,1100.185548 289.786617,1130.512630"/>
    <poly id="136208800" type="building.yes" color="255,230,230" fill="1" layer="-1.00" shape="1483.039172,242.699857 1474.380300,258.228051 1505.325273,275.427318 1509.641241,267.674940 1505.141576,265.178016 1506.549287,262.658293 1500.707516,259.411988 1502.375439,256.413692 1497.127666,253.500551 1498.394561,251.231685 1483.039172,242.699857"/>
    <poly id="136208805" type="building.yes" color="255,230,230" fill="1" layer="-1.00" shape="969.899625,166.761851 961.145378,182.373191 968.490581,186.472928 966.801182,189.483490 1002.591221,209.484532 995.630774,221.902706 1003.107206,226.075316 988.018235,252.987276 993.027392,255.786592 995.790826,250.860278 1034.076095,272.256047 1032.449606,275.163735 1039.640458,279.180561 1094.949128,180.620458 1104.065388,185.865111 1127.795579,143.403004 1118.680144,138.180552 1112.542956,149.127534 1096.632553,140.017325 1079.133662,171.227834 1080.984094,172.257835 1056.821379,215.339536 969.899625,166.761851"/>
    <poly id="136208806" type="building.yes" color="255,230,230" fill="1" layer="-1.00" shape="1048.952641,307.427871 1095.957543,333.114637 1098.274167,328.886260 1109.982594,335.287455 1112.283392,331.082015 1121.525551,336.132153 1095.833054,382.987030 1082.400615,375.640041 1081.088716,378.033493 1059.556211,366.271113 1069.078389,348.912531 1066.246883,347.364196 1063.394169,352.572727 1060.385833,350.931104 1058.449226,354.464306 1047.694481,348.593852 1050.073511,344.251470 1033.672837,335.294880 1048.952641,307.427871"/>
    <poly id="136208807" type="building.yes" color="255,230,230" fill="1" layer="-1.00" shape="1386.853630,348.084650 1410.756149,361.337778 1432.265255,322.656160 1472.595352,345.011853 1481.815454,328.435687 1476.093939,325.262686 1487.742968,304.320182 1489.318956,305.194052 1499.826662,286.303655 1451.650411,259.599307 1443.593100,274.100317 1454.150889,279.946280 1451.435300,284.825726 1478.198511,299.660207 1466.716436,320.306251 1439.062745,304.983262 1447.490616,289.832049 1425.906335,277.868956 1386.853630,348.084650"/>
    <poly id="136208810" type="building.hangar" color="255,230,230" fill="1" layer="-1.00" shape="846.226168,228.863545 868.841990,208.384455 878.397578,218.895467 855.781776,239.374498 846.226168,228.863545"/>
    <poly id="136208812" type="building.hangar" color="255,230,230" fill="1" layer="-1.00" shape="940.785331,281.437172 952.591145,288.168464 967.433057,262.213812 955.627638,255.493602 940.785331,281.437172"/>
    <poly id="136208815" type="building.hangar" color="255,230,230" fill="1" layer="-1.00" shape="972.262588,299.313235 984.176883,306.107190 999.019370,280.163797 987.099450,273.370016 972.262588,299.313235"/>
    <poly id="136208819" type="building.hangar" color="255,230,230" fill="1" layer="-1.00" shape="987.083852,307.585567 998.998092,314.379568 1013.840198,288.425105 1001.920777,281.642408 987.083852,307.585567"/>
    <poly id="136208821" type="building.yes" color="255,230,230" fill="1" layer="-1.00" shape="1378.172680,380.459366 1403.599413,370.808581 1412.983596,395.463977 1387.557017,405.114699 1378.172680,380.459366"/>
    <poly id="136208823" type="building.yes" color="255,230,230" fill="1" layer="-1.00" shape="1063.625649,491.964974 1091.756099,481.814045 1095.741085,492.837309 1067.610712,502.988209 1063.625649,491.964974"/>
    <poly id="136208825" type="building.hangar" color="255,230,230" fill="1" layer="-1.00" shape="956.326123,290.104345 968.240478,296.898248 983.082900,270.954791 971.162920,264.161061 956.326123,290.104345"/>
    <poly id="136208827" type="building.yes" color="255,230,230" fill="1" layer="-1.00" shape="1456.824123,248.981068 1470.310784,256.438732 1475.631613,246.851487 1462.144930,239.393803 1456.824123,248.981068"/>
    <poly id="136208833" type="building.yes" color="255,230,230" fill="1" layer="-1.00" shape="1090.650866,303.492497 1069.628209,291.921554 1142.818225,159.393885 1201.336586,191.602645 1139.864512,302.892776 1102.370410,282.267145 1090.650866,303.492497"/>
    <poly id="136208839" type="building.yes" color="255,230,230" fill="1" layer="-1.00" shape="1257.143460,391.638435 1165.392716,341.799312 1133.814042,399.735764 1210.010980,441.129305 1215.313934,431.397413 1223.464233,435.822329 1240.742201,404.119592 1248.144876,408.139520 1257.143460,391.638435"/>
    <poly id="139620530" type="building.apartments" color="255,230,230" fill="1" layer="-1.00" shape="1304.516334,736.194053 1302.335507,730.639653 1304.776667,729.684112 1302.906461,724.920048 1300.470874,725.875368 1299.301471,722.867192 1297.500993,718.312179 1293.767011,708.806100 1296.186326,707.862571 1294.266631,702.977846 1291.858462,703.920932 1288.764210,696.039389 1276.833087,700.705894 1279.964355,708.675144 1277.584067,709.617131 1278.546491,712.053812 1279.503340,714.490716 1281.867785,713.571658 1285.570377,722.989787 1288.577272,730.640684 1286.218412,731.559516 1287.181269,734.007331 1288.144124,736.455147 1289.557386,735.908389 1291.656458,741.231916 1297.775839,738.836818 1302.136609,749.923353 1299.866070,750.816367 1300.828914,753.264186 1301.785739,755.701095 1304.034418,754.820100 1307.525239,763.689245 1310.743744,771.889165 1308.505781,772.758581 1309.879058,776.260333 1310.431890,777.665353 1311.723820,777.156875 1315.072218,785.674938 1327.937536,780.636933 1324.533236,771.976153 1326.743772,771.118986 1324.873169,766.343781 1322.674223,767.211636 1319.456185,759.022837 1315.970522,750.142329 1318.153194,749.286266 1316.233545,744.401529 1314.067152,745.245798 1309.711989,734.159027 1304.516334,736.194053"/>
    <poly id="142821653" type="building.yes" color="255,230,230" fill="1" layer="-1.00" shape="808.469627,662.366801 807.756376,660.165549 811.124946,659.083474 811.838195,661.284727 808.469627,662.366801"/>
    <poly id="142821653#1" type="shop.kiosk" color="237,199,255" fill="1" layer="-1.00" shape="808.469627,662.366801 807.756376,660.165549 811.124946,659.083474 811.838195,661.284727 808.469627,662.366801"/>
    <poly id="145347115" type="amenity.car_wash" color="237,199,199" fill="1" layer="-1.00" shape="587.019783,648.870005 574.717734,641.869874 569.045231,651.807094 581.347261,658.807207 587.019783,648.870005"/>
    <poly id="145347115#1" type="building.yes" color="255,230,230" fill="1" layer="-1.00" shape="587.019783,648.870005 574.717734,641.869874 569.045231,651.807094 581.347261,658.807207 587.019783,648.870005"/>
    <poly id="150109515" type="building.yes" color="255,230,230" fill="1" layer="-1.00" shape="1508.157831,898.927491 1519.997139,894.209617 1511.875472,873.885234 1480.704651,886.294381 1485.348406,897.916130 1504.673789,890.213996 1508.157831,898.927491"/>
    <poly id="150972256" type="amenity.school" color="237,199,199" fill="1" layer="-2.00" shape="1589.961619,1098.915488 1596.962299,1083.152289 1587.087389,1078.694784 1594.600064,1062.888956 1579.088097,1055.388783 1567.097866,1060.090189 1550.697901,1052.725732 1545.802997,1054.592414 1542.602465,1055.823232 1540.611502,1056.582368 1532.428057,1073.206503 1516.971459,1079.049132 1513.045287,1077.332156 1511.040566,1081.258027 1474.005305,1095.394210 1468.983461,1106.006467 1474.459458,1108.509095 1472.226064,1113.703858 1480.600674,1117.496022 1472.715823,1135.301337 1465.228349,1131.774948 1460.227946,1133.512162 1455.400945,1145.231550 1463.410791,1148.837495 1472.438453,1145.602425 1476.426948,1137.227487 1474.988349,1136.571149 1478.427569,1128.563644 1495.496462,1136.046123 1502.553303,1119.600429 1519.203492,1126.943574 1525.854511,1110.257637 1542.565642,1118.010960 1556.655183,1085.622437 1589.961619,1098.915488"/>