<additional>
    <tazs>
        <taz id = "from_a" edges = "A"> </taz>
        <taz id = "to_b" edges = "B"> </taz>
        <taz id = "from_c" edges = "C"> </taz>
        <taz id = "to_d" edges = "D"> </taz>
        <taz id = "from_e" edges = "E"> </taz>
        <taz id = "to_f" edges = "F"> </taz>
        <taz id = "from_g" edges = "G"> </taz>
        <taz id = "to_h" edges = "H"> </taz>
    </tazs>
</additional>