<?xml version="1.0" encoding="UTF-8"?>

<!-- generated on 2024-01-04 15:20:49 by Eclipse SUMO netedit Version 1.18.0
<configuration xmlns:xsi="http://www.w3.org/2001/XMLSchema-instance" xsi:noNamespaceSchemaLocation="http://sumo.dlr.de/xsd/neteditConfiguration.xsd">

    <input>
        <sumo-net-file value="/home/pavel/dev/diplom/tssproblem/medium/net/osm.net.xml"/>
    </input>

    <output>
        <output-file value="/home/pavel/dev/diplom/tssproblem/medium/net/osm.net.xml"/>
        <output.street-names value="true"/>
    </output>

    <processing>
        <geometry.min-radius.fix.railways value="false"/>
        <geometry.max-grade.fix value="false"/>
        <offset.disable-normalization value="true"/>
        <lefthand value="0"/>
    </processing>

    <junctions>
        <no-turnarounds value="true"/>
        <junctions.corner-detail value="5"/>
        <junctions.limit-turn-speed value="5.50"/>
        <rectangular-lane-cut value="0"/>
    </junctions>

    <pedestrian>
        <walkingareas value="0"/>
    </pedestrian>

</configuration>
-->

<net version="1.16" junctionCornerDetail="5" limitTurnSpeed="5.50" xmlns:xsi="http://www.w3.org/2001/XMLSchema-instance" xsi:noNamespaceSchemaLocation="http://sumo.dlr.de/xsd/net_file.xsd">

    <location netOffset="-352032.56,-6653554.55" convBoundary="0.00,0.00,1871.42,1607.16" origBoundary="30.323586,59.919193,30.442000,60.049183" projParameter="+proj=utm +zone=36 +ellps=WGS84 +datum=WGS84 +units=m +no_defs"/>

    <type id="highway.primary" priority="12" numLanes="2" speed="27.78" disallow="tram rail_urban rail rail_electric rail_fast ship" oneway="0"/>
    <type id="highway.residential" priority="3" numLanes="1" speed="13.89" disallow="tram rail_urban rail rail_electric rail_fast ship" oneway="0"/>
    <type id="highway.secondary" priority="11" numLanes="1" speed="27.78" disallow="tram rail_urban rail rail_electric rail_fast ship" oneway="0"/>

    <edge id=":11028606674_0" function="internal">
        <lane id=":11028606674_0_0" index="0" disallow="pedestrian tram rail_urban rail rail_electric rail_fast ship" speed="3.65" length="4.67" shape="140.32,863.62 138.93,863.24 138.30,862.60 138.43,861.72 139.32,860.58"/>
    </edge>
    <edge id=":1152741424_0" function="internal">
        <lane id=":1152741424_0_0" index="0" disallow="pedestrian tram rail_urban rail rail_electric rail_fast ship" speed="3.65" length="4.67" shape="105.09,309.37 103.70,308.99 103.06,308.36 103.19,307.47 104.07,306.33"/>
    </edge>
    <edge id=":1412063953_0" function="internal">
        <lane id=":1412063953_0_0" index="0" disallow="pedestrian tram rail_urban rail rail_electric rail_fast ship" speed="12.71" length="9.59" shape="866.54,540.67 865.52,538.44 864.59,537.01 863.33,535.84 861.35,534.40"/>
        <lane id=":1412063953_0_1" index="1" disallow="pedestrian tram rail_urban rail rail_electric rail_fast ship" speed="13.78" length="9.59" shape="866.54,540.67 865.78,537.82 865.63,535.62 865.09,533.72 863.20,531.79"/>
        <lane id=":1412063953_0_2" index="2" disallow="pedestrian tram rail_urban rail rail_electric rail_fast ship" speed="14.30" length="9.59" shape="869.14,538.60 868.24,535.55 867.92,533.23 867.18,531.24 865.06,529.18"/>
    </edge>
    <edge id=":1483578348_0" function="internal">
        <lane id=":1483578348_0_0" index="0" disallow="tram rail_urban rail rail_electric rail_fast ship" speed="3.65" length="4.67" shape="0.49,670.80 -0.89,670.41 -1.52,669.77 -1.39,668.89 -0.49,667.76"/>
    </edge>
    <edge id=":1613667246_0" function="internal">
        <lane id=":1613667246_0_0" index="0" disallow="pedestrian tram rail_urban rail rail_electric rail_fast ship" speed="16.67" length="8.19" shape="806.69,491.61 804.59,490.43 802.96,489.94 801.34,489.45 799.26,488.23"/>
        <lane id=":1613667246_0_1" index="1" disallow="pedestrian tram rail_urban rail rail_electric rail_fast ship" speed="16.67" length="8.19" shape="808.54,489.01 806.45,487.83 804.83,487.34 803.22,486.85 801.15,485.65"/>
    </edge>
    <edge id=":2056069209_0" function="internal">
        <lane id=":2056069209_0_0" index="0" disallow="tram rail_urban rail rail_electric rail_fast ship" speed="6.06" length="0.97" shape="691.03,1098.18 690.34,1097.49"/>
    </edge>
    <edge id=":2056069209_1" function="internal">
        <lane id=":2056069209_1_0" index="0" disallow="tram rail_urban rail rail_electric rail_fast ship" speed="3.65" length="0.93" shape="691.03,1098.18 690.60,1097.35"/>
    </edge>
    <edge id=":2056069209_4" function="internal">
        <lane id=":2056069209_4_0" index="0" disallow="tram rail_urban rail rail_electric rail_fast ship" speed="6.06" length="6.82" shape="690.34,1097.49 690.01,1097.16 689.74,1095.66 690.22,1093.66 691.44,1091.17"/>
    </edge>
    <edge id=":2056069209_5" function="internal">
        <lane id=":2056069209_5_0" index="0" disallow="tram rail_urban rail rail_electric rail_fast ship" speed="3.65" length="3.74" shape="690.60,1097.35 690.37,1096.90 690.41,1096.00 691.15,1095.50 692.59,1095.39"/>
    </edge>
    <edge id=":2056069209_2" function="internal">
        <lane id=":2056069209_2_0" index="0" disallow="tram rail_urban rail rail_electric rail_fast ship" speed="16.67" length="9.40" shape="686.71,1099.29 691.44,1091.17"/>
    </edge>
    <edge id=":2056069209_3" function="internal">
        <lane id=":2056069209_3_0" index="0" disallow="tram rail_urban rail rail_electric rail_fast ship" speed="6.13" length="7.78" shape="686.71,1099.29 688.26,1097.01 689.76,1095.61 691.20,1095.07 692.59,1095.39"/>
    </edge>
    <edge id=":21755971_0" function="internal">
        <lane id=":21755971_0_0" index="0" disallow="pedestrian tram rail_urban rail rail_electric rail_fast ship" speed="3.65" length="4.67" shape="643.62,1607.97 642.32,1608.60 641.43,1608.54 640.94,1607.79 640.86,1606.35"/>
    </edge>
    <edge id=":230358_0" function="internal">
        <lane id=":230358_0_0" index="0" disallow="pedestrian tram rail_urban rail rail_electric rail_fast ship" speed="16.67" length="16.89" shape="1016.36,547.33 1018.86,551.70 1020.67,554.73 1023.01,557.22 1027.12,559.91"/>
        <lane id=":230358_0_1" index="1" disallow="pedestrian tram rail_urban rail rail_electric rail_fast ship" speed="16.67" length="17.62" shape="1013.64,549.01 1016.23,553.58 1018.07,556.78 1020.47,559.41 1024.73,562.24"/>
    </edge>
    <edge id=":230358_2" function="internal">
        <lane id=":230358_2_0" index="0" disallow="pedestrian tram rail_urban rail rail_electric rail_fast ship" speed="16.67" length="16.85" shape="1013.64,549.01 1016.21,553.59 1017.49,556.96 1018.31,560.53 1019.49,565.70"/>
        <lane id=":230358_2_1" index="1" disallow="pedestrian tram rail_urban rail rail_electric rail_fast ship" speed="16.67" length="16.85" shape="1010.92,550.69 1013.33,555.02 1014.53,558.22 1015.28,561.60 1016.39,566.48"/>
        <lane id=":230358_2_2" index="2" disallow="pedestrian tram rail_urban rail rail_electric rail_fast ship" speed="16.67" length="16.85" shape="1008.19,552.37 1010.46,556.45 1011.56,559.47 1012.26,562.67 1013.29,567.27"/>
    </edge>
    <edge id=":230361_0" function="internal">
        <lane id=":230361_0_0" index="0" disallow="pedestrian tram rail_urban rail rail_electric rail_fast ship" speed="16.67" length="21.70" shape="923.60,697.61 920.28,692.63 917.31,689.60 913.84,686.90 909.01,682.91"/>
        <lane id=":230361_0_1" index="1" disallow="pedestrian tram rail_urban rail rail_electric rail_fast ship" speed="16.67" length="21.70" shape="923.60,697.61 920.64,692.28 918.44,688.47 915.71,684.95 911.14,680.52"/>
        <lane id=":230361_0_2" index="2" disallow="pedestrian tram rail_urban rail rail_electric rail_fast ship" speed="16.67" length="21.70" shape="926.11,695.56 923.12,690.21 920.83,686.31 917.98,682.69 913.28,678.14"/>
        <lane id=":230361_0_3" index="3" disallow="pedestrian tram rail_urban rail rail_electric rail_fast ship" speed="16.67" length="21.70" shape="926.11,695.56 923.50,689.88 922.02,685.23 919.91,680.80 915.41,675.75"/>
    </edge>
    <edge id=":230361_4" function="internal">
        <lane id=":230361_4_0" index="0" disallow="pedestrian tram rail_urban rail rail_electric rail_fast ship" speed="16.67" length="21.01" shape="929.44,689.92 923.47,688.29 919.44,686.79 915.84,684.51 911.14,680.52"/>
        <lane id=":230361_4_1" index="1" disallow="pedestrian tram rail_urban rail rail_electric rail_fast ship" speed="16.67" length="21.01" shape="930.80,686.97 925.09,685.44 921.23,684.05 917.77,681.92 913.28,678.14"/>
        <lane id=":230361_4_2" index="2" disallow="pedestrian tram rail_urban rail rail_electric rail_fast ship" speed="16.67" length="21.01" shape="932.16,684.02 925.03,683.67 919.63,685.24 914.70,685.92 909.01,682.91"/>
        <lane id=":230361_4_3" index="3" disallow="pedestrian tram rail_urban rail rail_electric rail_fast ship" speed="16.67" length="21.01" shape="932.16,684.02 926.71,682.59 923.01,681.31 919.70,679.33 915.41,675.75"/>
    </edge>
    <edge id=":230362_0" function="internal">
        <lane id=":230362_0_0" index="0" disallow="pedestrian tram rail_urban rail rail_electric rail_fast ship" speed="16.67" length="17.24" shape="870.66,622.76 868.95,617.73 867.48,614.35 866.33,610.91 865.56,605.71"/>
        <lane id=":230362_0_1" index="1" disallow="pedestrian tram rail_urban rail rail_electric rail_fast ship" speed="16.67" length="17.24" shape="873.79,622.06 872.11,617.16 870.65,613.86 869.51,610.51 868.75,605.44"/>
        <lane id=":230362_0_2" index="2" disallow="pedestrian tram rail_urban rail rail_electric rail_fast ship" speed="16.67" length="17.24" shape="876.92,621.36 875.27,616.58 873.83,613.38 872.69,610.12 871.94,605.18"/>
        <lane id=":230362_0_3" index="3" disallow="pedestrian tram rail_urban rail rail_electric rail_fast ship" speed="16.67" length="17.24" shape="876.92,621.36 875.78,616.59 875.44,613.24 875.38,609.84 875.13,604.91"/>
    </edge>
    <edge id=":230362_4" function="internal">
        <lane id=":230362_4_0" index="0" disallow="pedestrian tram rail_urban rail rail_electric rail_fast ship" speed="7.47" length="8.61" shape="860.67,612.18 862.93,610.78 864.50,609.24 865.38,607.54 865.56,605.71"/>
        <lane id=":230362_4_1" index="1" disallow="pedestrian tram rail_urban rail rail_electric rail_fast ship" speed="8.64" length="11.78" shape="862.74,614.72 865.56,612.90 867.50,610.74 868.56,608.26 868.75,605.44"/>
        <lane id=":230362_4_2" index="2" disallow="pedestrian tram rail_urban rail rail_electric rail_fast ship" speed="9.68" length="14.97" shape="864.80,617.26 868.18,615.01 870.49,612.25 871.75,608.97 871.94,605.18"/>
        <lane id=":230362_4_3" index="3" disallow="pedestrian tram rail_urban rail rail_electric rail_fast ship" speed="10.29" length="17.01" shape="864.80,617.26 869.53,614.41 872.83,611.40 874.70,608.23 875.13,604.91"/>
    </edge>
    <edge id=":230364_0" function="internal">
        <lane id=":230364_0_0" index="0" disallow="pedestrian tram rail_urban rail rail_electric rail_fast ship" speed="9.89" length="5.69" shape="939.91,496.48 941.51,496.06 942.55,495.54 943.43,494.76 944.60,493.54"/>
        <lane id=":230364_0_1" index="1" disallow="pedestrian tram rail_urban rail rail_electric rail_fast ship" speed="11.38" length="7.62" shape="940.55,499.61 942.71,499.07 944.11,498.41 945.32,497.39 946.89,495.77"/>
    </edge>
    <edge id=":230364_2" function="internal">
        <lane id=":230364_2_0" index="0" disallow="pedestrian tram rail_urban rail rail_electric rail_fast ship" speed="16.67" length="6.60" shape="940.55,499.61 942.80,499.23 944.38,499.18 945.96,499.39 948.23,499.77"/>
        <lane id=":230364_2_1" index="1" disallow="pedestrian tram rail_urban rail rail_electric rail_fast ship" speed="16.67" length="6.60" shape="941.20,502.75 943.11,502.43 944.45,502.40 945.79,502.60 947.73,502.93"/>
        <lane id=":230364_2_2" index="2" disallow="pedestrian tram rail_urban rail rail_electric rail_fast ship" speed="16.67" length="6.60" shape="941.84,505.88 943.42,505.63 944.53,505.63 945.63,505.81 947.23,506.09"/>
    </edge>
    <edge id=":230365_0" function="internal">
        <lane id=":230365_0_0" index="0" disallow="pedestrian tram rail_urban rail rail_electric rail_fast ship" speed="10.41" length="10.66" shape="979.50,504.19 979.99,506.36 980.35,507.92 981.07,509.24 982.64,510.68"/>
        <lane id=":230365_0_1" index="1" disallow="pedestrian tram rail_urban rail rail_electric rail_fast ship" speed="11.79" length="10.66" shape="979.50,504.19 979.69,507.07 979.19,509.33 979.16,511.28 980.71,513.24"/>
        <lane id=":230365_0_2" index="2" disallow="pedestrian tram rail_urban rail rail_electric rail_fast ship" speed="12.80" length="10.66" shape="976.45,505.15 976.81,508.57 976.53,511.21 976.79,513.49 978.79,515.79"/>
        <lane id=":230365_0_3" index="3" disallow="pedestrian tram rail_urban rail rail_electric rail_fast ship" speed="14.18" length="10.66" shape="976.45,505.15 976.51,509.34 975.34,512.65 974.82,515.51 976.87,518.35"/>
    </edge>
    <edge id=":230365_4" function="internal">
        <lane id=":230365_4_0" index="0" disallow="pedestrian tram rail_urban rail rail_electric rail_fast ship" speed="16.67" length="11.20" shape="972.10,507.18 974.81,508.72 976.57,509.95 978.24,511.30 980.71,513.24"/>
        <lane id=":230365_4_1" index="1" disallow="pedestrian tram rail_urban rail rail_electric rail_fast ship" speed="16.67" length="11.20" shape="970.60,510.00 973.18,511.48 974.85,512.65 976.44,513.95 978.79,515.79"/>
        <lane id=":230365_4_2" index="2" disallow="pedestrian tram rail_urban rail rail_electric rail_fast ship" speed="16.67" length="11.20" shape="969.10,512.83 973.00,513.28 976.08,511.42 979.06,509.73 982.64,510.68"/>
        <lane id=":230365_4_3" index="3" disallow="pedestrian tram rail_urban rail rail_electric rail_fast ship" speed="16.67" length="11.20" shape="969.10,512.83 971.55,514.24 973.13,515.36 974.64,516.60 976.87,518.35"/>
    </edge>
    <edge id=":235699787_0" function="internal">
        <lane id=":235699787_0_0" index="0" disallow="tram rail_urban rail rail_electric rail_fast ship" speed="3.65" length="4.67" shape="143.63,1109.37 142.20,1109.17 141.50,1108.62 141.51,1107.73 142.25,1106.49"/>
    </edge>
    <edge id=":247476067_0" function="internal">
        <lane id=":247476067_0_0" index="0" disallow="pedestrian tram rail_urban rail rail_electric rail_fast ship" speed="16.67" length="14.40" shape="600.66,716.04 586.98,720.52"/>
        <lane id=":247476067_0_1" index="1" disallow="pedestrian tram rail_urban rail rail_electric rail_fast ship" speed="16.67" length="14.40" shape="599.66,713.00 585.98,717.48"/>
    </edge>
    <edge id=":247476067_2" function="internal">
        <lane id=":247476067_2_0" index="0" disallow="pedestrian tram rail_urban rail rail_electric rail_fast ship" speed="8.69" length="3.70" shape="599.66,713.00 595.99,713.45"/>
    </edge>
    <edge id=":247476067_3" function="internal">
        <lane id=":247476067_3_0" index="0" disallow="pedestrian tram rail_urban rail rail_electric rail_fast ship" speed="3.65" length="1.44" shape="599.66,713.00 598.27,712.61"/>
    </edge>
    <edge id=":247476067_11" function="internal">
        <lane id=":247476067_11_0" index="0" disallow="pedestrian tram rail_urban rail rail_electric rail_fast ship" speed="8.69" length="13.15" shape="595.99,713.45 595.78,713.48 592.47,712.20 589.72,709.15 587.54,704.33"/>
    </edge>
    <edge id=":247476067_12" function="internal">
        <lane id=":247476067_12_0" index="0" disallow="pedestrian tram rail_urban rail rail_electric rail_fast ship" speed="3.65" length="3.23" shape="598.27,712.61 597.64,711.97 597.77,711.09 598.67,709.95"/>
    </edge>
    <edge id=":247476067_4" function="internal">
        <lane id=":247476067_4_0" index="0" disallow="pedestrian tram rail_urban rail rail_electric rail_fast ship" speed="6.52" length="9.05" shape="590.58,703.32 591.69,705.55 593.24,706.89 595.23,707.34 597.67,706.91"/>
    </edge>
    <edge id=":247476067_5" function="internal">
        <lane id=":247476067_5_0" index="0" disallow="pedestrian tram rail_urban rail rail_electric rail_fast ship" speed="8.66" length="16.88" shape="590.58,703.32 591.72,708.49 591.33,712.57 589.42,715.57 585.98,717.48"/>
    </edge>
    <edge id=":247476067_6" function="internal">
        <lane id=":247476067_6_0" index="0" disallow="tram rail_urban rail rail_electric rail_fast ship" speed="3.65" length="4.67" shape="590.58,703.32 590.20,704.71 589.57,705.35 588.68,705.22 587.54,704.33"/>
    </edge>
    <edge id=":247476067_7" function="internal">
        <lane id=":247476067_7_0" index="0" disallow="pedestrian tram rail_urban rail rail_electric rail_fast ship" speed="6.50" length="9.03" shape="583.99,711.40 586.21,710.30 587.54,708.76 587.98,706.77 587.54,704.33"/>
    </edge>
    <edge id=":247476067_8" function="internal">
        <lane id=":247476067_8_0" index="0" disallow="pedestrian tram rail_urban rail rail_electric rail_fast ship" speed="16.67" length="14.40" shape="583.99,711.40 597.67,706.91"/>
        <lane id=":247476067_8_1" index="1" disallow="pedestrian tram rail_urban rail rail_electric rail_fast ship" speed="16.67" length="14.40" shape="584.98,714.44 598.67,709.95"/>
    </edge>
    <edge id=":247476067_10" function="internal">
        <lane id=":247476067_10_0" index="0" disallow="pedestrian tram rail_urban rail rail_electric rail_fast ship" speed="3.65" length="1.44" shape="584.98,714.44 586.37,714.83"/>
    </edge>
    <edge id=":247476067_13" function="internal">
        <lane id=":247476067_13_0" index="0" disallow="pedestrian tram rail_urban rail rail_electric rail_fast ship" speed="3.65" length="3.23" shape="586.37,714.83 587.00,715.46 586.87,716.35 585.98,717.48"/>
    </edge>
    <edge id=":247476137_0" function="internal">
        <lane id=":247476137_0_0" index="0" disallow="pedestrian tram rail_urban rail rail_electric rail_fast ship" speed="6.53" length="9.07" shape="359.21,795.23 356.98,796.32 355.63,797.87 355.16,799.86 355.57,802.31"/>
    </edge>
    <edge id=":247476137_1" function="internal">
        <lane id=":247476137_1_0" index="0" disallow="pedestrian tram rail_urban rail rail_electric rail_fast ship" speed="16.67" length="11.24" shape="359.21,795.23 348.51,798.70"/>
        <lane id=":247476137_1_1" index="1" disallow="pedestrian tram rail_urban rail rail_electric rail_fast ship" speed="16.67" length="11.24" shape="358.21,792.18 347.53,795.65"/>
    </edge>
    <edge id=":247476137_3" function="internal">
        <lane id=":247476137_3_0" index="0" disallow="pedestrian tram rail_urban rail rail_electric rail_fast ship" speed="8.11" length="2.37" shape="358.21,792.18 355.84,792.23"/>
    </edge>
    <edge id=":247476137_4" function="internal">
        <lane id=":247476137_4_0" index="0" disallow="pedestrian tram rail_urban rail rail_electric rail_fast ship" speed="3.65" length="1.44" shape="358.21,792.18 356.82,791.80"/>
    </edge>
    <edge id=":247476137_10" function="internal">
        <lane id=":247476137_10_0" index="0" disallow="pedestrian tram rail_urban rail rail_electric rail_fast ship" speed="8.11" length="12.20" shape="355.84,792.23 355.65,792.23 353.29,790.63 351.13,787.39 349.16,782.51"/>
    </edge>
    <edge id=":247476137_11" function="internal">
        <lane id=":247476137_11_0" index="0" disallow="pedestrian tram rail_urban rail rail_electric rail_fast ship" speed="3.65" length="3.23" shape="356.82,791.80 356.20,791.16 356.33,790.28 357.22,789.14"/>
    </edge>
    <edge id=":247476137_5" function="internal">
        <lane id=":247476137_5_0" index="0" disallow="pedestrian tram rail_urban rail rail_electric rail_fast ship" speed="6.50" length="9.03" shape="345.57,789.56 347.79,788.47 349.13,786.94 349.59,784.95 349.16,782.51"/>
    </edge>
    <edge id=":247476137_6" function="internal">
        <lane id=":247476137_6_0" index="0" disallow="pedestrian tram rail_urban rail rail_electric rail_fast ship" speed="16.67" length="11.21" shape="345.57,789.56 356.23,786.10"/>
        <lane id=":247476137_6_1" index="1" disallow="pedestrian tram rail_urban rail rail_electric rail_fast ship" speed="16.67" length="11.21" shape="346.55,792.60 357.22,789.14"/>
    </edge>
    <edge id=":247476137_8" function="internal">
        <lane id=":247476137_8_0" index="0" disallow="pedestrian tram rail_urban rail rail_electric rail_fast ship" speed="8.10" length="2.38" shape="346.55,792.60 348.92,792.57"/>
    </edge>
    <edge id=":247476137_9" function="internal">
        <lane id=":247476137_9_0" index="0" disallow="pedestrian tram rail_urban rail rail_electric rail_fast ship" speed="3.65" length="1.44" shape="346.55,792.60 347.93,793.00"/>
    </edge>
    <edge id=":247476137_12" function="internal">
        <lane id=":247476137_12_0" index="0" disallow="pedestrian tram rail_urban rail rail_electric rail_fast ship" speed="8.10" length="12.21" shape="348.92,792.57 349.12,792.56 351.49,794.17 353.64,797.41 355.57,802.31"/>
    </edge>
    <edge id=":247476137_13" function="internal">
        <lane id=":247476137_13_0" index="0" disallow="pedestrian tram rail_urban rail rail_electric rail_fast ship" speed="3.65" length="3.23" shape="347.93,793.00 348.56,793.64 348.42,794.52 347.53,795.65"/>
    </edge>
    <edge id=":26054857_0" function="internal">
        <lane id=":26054857_0_0" index="0" disallow="pedestrian tram rail_urban rail rail_electric rail_fast ship" speed="6.95" length="4.91" shape="419.58,206.90 418.46,206.34 417.30,206.04 416.10,206.03 414.87,206.29"/>
    </edge>
    <edge id=":26054857_1" function="internal">
        <lane id=":26054857_1_0" index="0" disallow="pedestrian tram rail_urban rail rail_electric rail_fast ship" speed="3.65" length="4.67" shape="413.90,203.24 415.29,203.64 415.91,204.28 415.77,205.16 414.87,206.29"/>
    </edge>
    <edge id=":297680488_0" function="internal">
        <lane id=":297680488_0_0" index="0" disallow="pedestrian tram rail_urban rail rail_electric rail_fast ship" speed="13.52" length="13.75" shape="999.85,687.56 996.67,686.60 994.38,686.11 992.11,686.23 988.96,687.10"/>
        <lane id=":297680488_0_1" index="1" disallow="pedestrian tram rail_urban rail rail_electric rail_fast ship" speed="14.47" length="13.75" shape="999.85,687.56 996.31,686.00 993.87,684.43 991.45,683.54 987.95,684.07"/>
        <lane id=":297680488_0_2" index="2" disallow="pedestrian tram rail_urban rail rail_electric rail_fast ship" speed="15.24" length="13.75" shape="1000.35,684.38 996.38,682.72 993.62,681.15 990.87,680.36 986.94,681.03"/>
        <lane id=":297680488_0_3" index="3" disallow="pedestrian tram rail_urban rail rail_electric rail_fast ship" speed="16.37" length="13.75" shape="1000.35,684.38 995.96,682.09 993.11,679.42 990.27,677.63 985.93,678.00"/>
    </edge>
    <edge id=":297680488_4" function="internal">
        <lane id=":297680488_4_0" index="0" disallow="pedestrian tram rail_urban rail rail_electric rail_fast ship" speed="16.67" length="12.60" shape="999.00,677.75 996.10,680.74 994.43,683.25 992.53,685.34 988.96,687.10"/>
        <lane id=":297680488_4_1" index="1" disallow="pedestrian tram rail_urban rail rail_electric rail_fast ship" speed="16.67" length="12.60" shape="999.00,677.75 996.04,680.16 993.89,681.67 991.53,682.80 987.95,684.07"/>
        <lane id=":297680488_4_2" index="2" disallow="pedestrian tram rail_urban rail rail_electric rail_fast ship" speed="16.67" length="12.60" shape="997.27,675.03 994.51,677.30 992.50,678.74 990.29,679.83 986.94,681.03"/>
        <lane id=":297680488_4_3" index="3" disallow="pedestrian tram rail_urban rail rail_electric rail_fast ship" speed="14.17" length="12.60" shape="995.48,672.20 993.28,674.71 991.40,676.08 989.17,676.96 985.93,678.00"/>
    </edge>
    <edge id=":3076124789_0" function="internal">
        <lane id=":3076124789_0_0" index="0" disallow="pedestrian tram rail_urban rail rail_electric rail_fast ship" speed="16.67" length="8.21" shape="1054.71,556.10 1056.95,555.19 1058.34,554.22 1059.73,553.25 1061.97,552.36"/>
        <lane id=":3076124789_0_1" index="1" disallow="pedestrian tram rail_urban rail rail_electric rail_fast ship" speed="16.67" length="8.21" shape="1055.60,559.17 1057.83,558.27 1059.22,557.30 1060.61,556.33 1062.85,555.44"/>
        <lane id=":3076124789_0_2" index="2" disallow="pedestrian tram rail_urban rail rail_electric rail_fast ship" speed="16.67" length="8.21" shape="1055.60,559.17 1057.97,558.75 1059.66,558.84 1061.35,558.93 1063.72,558.52"/>
    </edge>
    <edge id=":309149653_0" function="internal">
        <lane id=":309149653_0_0" index="0" disallow="tram rail_urban rail rail_electric rail_fast ship" speed="6.89" length="10.33" shape="288.95,584.40 287.81,582.18 286.01,580.90 283.56,580.57 280.46,581.17"/>
    </edge>
    <edge id=":309149653_1" function="internal">
        <lane id=":309149653_1_0" index="0" disallow="tram rail_urban rail rail_electric rail_fast ship" speed="16.67" length="14.57" shape="288.95,584.40 287.64,580.96 286.07,577.72 284.49,574.47 283.15,571.05"/>
    </edge>
    <edge id=":309149653_2" function="internal">
        <lane id=":309149653_2_0" index="0" disallow="tram rail_urban rail rail_electric rail_fast ship" speed="7.78" length="9.50" shape="288.95,584.40 288.26,580.56 288.74,577.49 290.20,575.46"/>
    </edge>
    <edge id=":309149653_12" function="internal">
        <lane id=":309149653_12_0" index="0" disallow="tram rail_urban rail rail_electric rail_fast ship" speed="7.78" length="3.55" shape="290.20,575.46 290.40,575.19 293.23,573.66"/>
    </edge>
    <edge id=":309149653_3" function="internal">
        <lane id=":309149653_3_0" index="0" disallow="tram rail_urban rail rail_electric rail_fast ship" speed="13.89" length="14.50" shape="294.25,576.69 280.46,581.17"/>
    </edge>
    <edge id=":309149653_4" function="internal">
        <lane id=":309149653_4_0" index="0" disallow="tram rail_urban rail rail_electric rail_fast ship" speed="7.97" length="14.26" shape="294.25,576.69 290.40,577.40 287.26,576.70 284.85,574.58 283.15,571.05"/>
    </edge>
    <edge id=":309149653_5" function="internal">
        <lane id=":309149653_5_0" index="0" disallow="tram rail_urban rail rail_electric rail_fast ship" speed="3.65" length="4.67" shape="294.25,576.69 292.86,576.32 292.22,575.69 292.35,574.80 293.23,573.66"/>
    </edge>
    <edge id=":309149653_6" function="internal">
        <lane id=":309149653_6_0" index="0" disallow="tram rail_urban rail rail_electric rail_fast ship" speed="6.47" length="9.03" shape="286.20,570.09 287.27,572.32 288.80,573.66 290.79,574.11 293.23,573.66"/>
    </edge>
    <edge id=":309149653_7" function="internal">
        <lane id=":309149653_7_0" index="0" disallow="tram rail_urban rail rail_electric rail_fast ship" speed="8.01" length="3.45" shape="286.20,570.09 286.76,573.49"/>
    </edge>
    <edge id=":309149653_8" function="internal">
        <lane id=":309149653_8_0" index="0" disallow="tram rail_urban rail rail_electric rail_fast ship" speed="3.65" length="1.44" shape="286.20,570.09 285.80,571.47"/>
    </edge>
    <edge id=":309149653_13" function="internal">
        <lane id=":309149653_13_0" index="0" disallow="tram rail_urban rail rail_electric rail_fast ship" speed="8.01" length="10.79" shape="286.76,573.49 286.84,573.95 286.10,577.08 283.97,579.49 280.46,581.17"/>
    </edge>
    <edge id=":309149653_14" function="internal">
        <lane id=":309149653_14_0" index="0" disallow="tram rail_urban rail rail_electric rail_fast ship" speed="3.65" length="3.23" shape="285.80,571.47 285.15,572.09 284.27,571.95 283.15,571.05"/>
    </edge>
    <edge id=":309149653_9" function="internal">
        <lane id=":309149653_9_0" index="0" disallow="tram rail_urban rail rail_electric rail_fast ship" speed="6.51" length="9.07" shape="279.50,578.12 281.74,577.05 283.09,575.51 283.56,573.51 283.15,571.05"/>
    </edge>
    <edge id=":309149653_10" function="internal">
        <lane id=":309149653_10_0" index="0" disallow="tram rail_urban rail rail_electric rail_fast ship" speed="13.89" length="14.43" shape="279.50,578.12 293.23,573.66"/>
    </edge>
    <edge id=":309149653_11" function="internal">
        <lane id=":309149653_11_0" index="0" disallow="tram rail_urban rail rail_electric rail_fast ship" speed="3.65" length="4.67" shape="279.50,578.12 280.89,578.52 281.51,579.17 281.36,580.05 280.46,581.17"/>
    </edge>
    <edge id=":359181375_0" function="internal">
        <lane id=":359181375_0_0" index="0" disallow="pedestrian tram rail_urban rail rail_electric rail_fast ship" speed="16.67" length="16.49" shape="1020.01,644.22 1019.22,649.04 1018.91,652.38 1019.02,655.74 1019.48,660.60"/>
        <lane id=":359181375_0_1" index="1" disallow="pedestrian tram rail_urban rail rail_electric rail_fast ship" speed="16.67" length="17.36" shape="1016.86,643.67 1016.03,648.75 1015.70,652.27 1015.81,655.81 1016.30,660.93"/>
    </edge>
    <edge id=":359181375_2" function="internal">
        <lane id=":359181375_2_0" index="0" disallow="pedestrian tram rail_urban rail rail_electric rail_fast ship" speed="16.67" length="16.92" shape="1016.86,643.67 1015.95,648.81 1015.08,652.30 1013.68,655.60 1011.18,660.16"/>
        <lane id=":359181375_2_1" index="1" disallow="pedestrian tram rail_urban rail rail_electric rail_fast ship" speed="16.67" length="16.92" shape="1013.71,643.13 1012.82,648.07 1011.96,651.41 1010.59,654.58 1008.18,658.96"/>
        <lane id=":359181375_2_2" index="2" disallow="pedestrian tram rail_urban rail rail_electric rail_fast ship" speed="16.67" length="16.92" shape="1010.55,642.59 1009.70,647.32 1008.85,650.53 1007.51,653.56 1005.18,657.77"/>
    </edge>
    <edge id=":3603169_0" function="internal">
        <lane id=":3603169_0_0" index="0" disallow="pedestrian tram rail_urban rail rail_electric rail_fast ship" speed="16.26" length="14.13" shape="972.41,692.61 968.56,694.09 966.13,695.62 964.10,697.74 961.46,700.99"/>