<additional>
    <tazs>
        <taz id = "from_a1" edges = "A1"> </taz>
        <taz id = "to_e2" edges = "E2"> </taz>

        <taz id = "from_a1" edges = "A1"> </taz>
        <taz id = "to_b1" edges = "B1"> </taz>
        
        <taz id = "from_e1" edges = "E1"> </taz>
        <taz id = "to_a2" edges = "A2"> </taz>

        <taz id = "from_b2" edges = "B2"> </taz>
        <taz id = "to_e2" edges = "E2"> </taz>

        <taz id = "from_c2" edges = "C2"> </taz>
        <taz id = "to_e2" edges = "E2"> </taz>

        <taz id = "from_c2" edges = "C2"> </taz>
        <taz id = "to_d2" edges = "D2"> </taz>

        <taz id = "from_d1" edges = "D1"> </taz>
        <taz id = "to_c1" edges = "C1"> </taz>

        <taz id = "from_d1" edges = "D1"> </taz>
        <taz id = "to_a2" edges = "A2"> </taz>

        <taz id = "from_e1" edges = "E1"> </taz>
        <taz id = "to_b1" edges = "B1"> </taz>
    </tazs>
</additional>