<?xml version="1.0" encoding="UTF-8"?>

<!-- generated on 2024-01-02 02:50:04 by Eclipse SUMO netedit Version 1.18.0
<configuration xmlns:xsi="http://www.w3.org/2001/XMLSchema-instance" xsi:noNamespaceSchemaLocation="http://sumo.dlr.de/xsd/neteditConfiguration.xsd">

    <input>
        <sumo-net-file value="/home/pavel/dev/diplom/tssproblem/net/straight_cross.net.xml"/>
    </input>

    <output>
        <output-file value="/home/pavel/dev/diplom/tssproblem/net/straight_cross.net.xml"/>
    </output>

    <processing>
        <geometry.min-radius.fix.railways value="false"/>
        <geometry.max-grade.fix value="false"/>
        <offset.disable-normalization value="true"/>
        <lefthand value="0"/>
    </processing>

    <junctions>
        <no-turnarounds value="true"/>
        <junctions.corner-detail value="5"/>
        <junctions.limit-turn-speed value="5.50"/>
        <rectangular-lane-cut value="0"/>
    </junctions>

    <pedestrian>
        <walkingareas value="0"/>
    </pedestrian>

</configuration>
-->

<net version="1.16" junctionCornerDetail="5" limitTurnSpeed="5.50" xmlns:xsi="http://www.w3.org/2001/XMLSchema-instance" xsi:noNamespaceSchemaLocation="http://sumo.dlr.de/xsd/net_file.xsd">

    <location netOffset="0.00,0.00" convBoundary="200.00,0.00,200.00,200.00" origBoundary="0.00,0.00,400.00,400.00" projParameter="!"/>

    <edge id=":S_0" function="internal">
        <lane id=":S_0_0" index="0" speed="13.89" length="0.10" shape="198.40,100.00 198.40,100.00"/>
    </edge>
    <edge id=":S_1" function="internal">
        <lane id=":S_1_0" index="0" speed="13.89" length="0.10" shape="201.60,100.00 201.60,100.00"/>
    </edge>

    <edge id="A" from="BOTTOM" to="S" priority="-1">
        <lane id="A_0" index="0" speed="13.89" length="100.00" shape="201.60,0.00 201.60,100.00"/>
    </edge>
    <edge id="B" from="S" to="TOP" priority="-1">
        <lane id="B_0" index="0" speed="13.89" length="100.00" shape="201.60,100.00 201.60,200.00"/>
    </edge>
    <edge id="C" from="TOP" to="S" priority="-1">
        <lane id="C_0" index="0" speed="13.89" length="100.00" shape="198.40,200.00 198.40,100.00"/>
    </edge>
    <edge id="D" from="S" to="BOTTOM" priority="-1">
        <lane id="D_0" index="0" speed="13.89" length="100.00" shape="198.40,100.00 198.40,0.00"/>
    </edge>

    <tlLogic id="traffic_light_0" type="static" programID="0" offset="0">
        <phase duration="45" state="GG"/>
        <phase duration="45" state="yy"/>
        <phase duration="45" state="rr"/>
    </tlLogic>

    <junction id="BOTTOM" type="dead_end" x="200.00" y="0.00" incLanes="D_0" intLanes="" shape="200.00,0.00 196.80,0.00 200.00,0.00"/>
    <junction id="S" type="traffic_light" x="200.00" y="100.00" incLanes="C_0 A_0" intLanes=":S_0_0 :S_1_0" shape="196.80,100.00 203.20,100.00 196.80,100.00">
        <request index="0" response="00" foes="00" cont="0"/>
        <request index="1" response="00" foes="00" cont="0"/>
    </junction>
    <junction id="TOP" type="dead_end" x="200.00" y="200.00" incLanes="B_0" intLanes="" shape="200.00,200.00 203.20,200.00 200.00,200.00"/>

    <connection from="A" to="B" fromLane="0" toLane="0" via=":S_1_0" tl="traffic_light_0" linkIndex="1" dir="s" state="O"/>
    <connection from="C" to="D" fromLane="0" toLane="0" via=":S_0_0" tl="traffic_light_0" linkIndex="0" dir="s" state="O"/>

    <connection from=":S_0" to="D" fromLane="0" toLane="0" dir="s" state="M"/>
    <connection from=":S_1" to="B" fromLane="0" toLane="0" dir="s" state="M"/>

</net>
